tests/sample_data/ieee9.txt
 30/07/05 UW ARCHIVE           100.0  2005 W Anderson9BusTest Case
BUS DATA FOLLOWS                             9 ITEMS
   0 Bus1  16.5kV  1  1  3 1.040    0.0      0.0      0.0      0.0     0.0    16.5  1.040     0.0     0.0   0.0    0.0        0
   1 Bus2    18kV  1  1  2 1.025    0.0      0.0      0.0      1.63    0.0    18.0  1.025    99.0   -99.0   0.0    0.0        0
   2 Bus3  13.8kV  1  1  2 1.025    0.0      0.0      0.0      0.85    0.0    13.8  1.025    99.0   -99.0   0.0    0.0        0
   3 Bus4   230kV  1  1  0 1.000    0.0      0.0      0.0      0.0     0.0   230.0  0.000     0.0     0.0   0.0    0.0        0
   4 Bus5   230kV  1  1  0 1.000    0.0      1.25     0.5      0.0     0.0   230.0  0.000     0.0     0.0   0.0    0.0        0
   5 Bus6   230kV  1  1  0 1.000    0.0      0.9      0.3      0.0     0.0   230.0  0.000     0.0     0.0   0.0    0.0        0
   6 Bus7   230kV  1  1  0 1.000    0.0      0.0      0.0      0.0     0.0   230.0  0.000     0.0     0.0   0.0    0.0        0
   7 Bus8   230kV  1  1  0 1.000    0.0      1.0      0.35     0.0     0.0   230.0  0.000     0.0     0.0   0.0    0.0        0
   8 Bus9   230kV  1  1  0 1.000    0.0      0.0      0.0      0.0     0.0   230.0  0.000     0.0     0.0   0.0    0.0        0
-999 
BRANCH DATA FOLLOWS                          9 ITEMS
   0    3  1  1 1 0  0.0000    0.0576      0.0000     0     0     0    0 0  0.0       0.0 0.0    0.0     0.0    0.0   0.0
   1    6  1  1 1 0  0.0000    0.0625      0.0000     0     0     0    0 0  0.0       0.0 0.0    0.0     0.0    0.0   0.0
   2    8  1  1 1 0  0.0000    0.0586      0.0000     0     0     0    0 0  0.0       0.0 0.0    0.0     0.0    0.0   0.0
   3    4  1  1 1 0  0.0100    0.0850      0.1760     0     0     0    0 0  0.0       0.0 0.0    0.0     0.0    0.0   0.0
   3    5  1  1 1 0  0.0170    0.0920      0.1580     0     0     0    0 0  0.0       0.0 0.0    0.0     0.0    0.0   0.0
   4    6  1  1 1 0  0.0320    0.1610      0.3060     0     0     0    0 0  0.0       0.0 0.0    0.0     0.0    0.0   0.0
   5    8  1  1 1 0  0.0390    0.1700      0.3580     0     0     0    0 0  0.0       0.0 0.0    0.0     0.0    0.0   0.0
   6    7  1  1 1 0  0.0085    0.0720      0.1490     0     0     0    0 0  0.0       0.0 0.0    0.0     0.0    0.0   0.0
   7    8  1  1 1 0  0.0119    0.1008      0.2090     0     0     0    0 0  0.0       0.0 0.0    0.0     0.0    0.0   0.0
-999
LOSS ZONES FOLLOWS                     1 ITEMS
  1 IEEE 30 BUS
-99
INTERCHANGE DATA FOLLOWS                 1 ITEMS
-9
 1    2 Frank  230    0.0  999.99  Anderson9  Anderson 9 Bus Test Case
TIE LINES FOLLOWS                     0 ITEMS
-999
END OF DATA